/*--------------------------------*- C++ -*----------------------------------*\
|       o          |                                                          |
|    o     o       | HELYX-OS                                                  |
|   o   O   o      | Version: v2.4.0                                           |
|    o     o       | Web:     http://www.engys.com                            |
|       o          |                                                          |
\*---------------------------------------------------------------------------*/
FoamFile
{
    version 2.0;
    format ascii;
    class volScalarField;
    location "0";
    object p_rgh;
}
dimensions [ 0 2 -2 0 0 0 0 ];
internalField uniform 0.0;
boundaryField
{

    //- Set patchGroups for constraint patches
    #includeEtc "caseDicts/setConstraintTypes"
    
    merged_domain_ground
    {
        type fixedFluxPressure;
        value uniform 0;
        rho rhok;
    }

    merged_inlet
    {
        type zeroGradient;
    }

    merged_outlet
    {
        type fixedValue;
        value uniform 0.0;
    }

    merged_domain
    {
        type fixedFluxPressure;
        value uniform 0;
        rho rhok;
    }

    merged_water
    {
        type fixedFluxPressure;
        value uniform 0;
        rho rhok;
    }

    merged_ground
    {
        type fixedFluxPressure;
        value uniform 0;
        rho rhok;
    }

    merged_building3
    {
        type fixedFluxPressure;
        value uniform 0;
        rho rhok;
    }

    merged_building2
    {
        type fixedFluxPressure;
        value uniform 0;
        rho rhok;
    }

    merged_building1
    {
        type fixedFluxPressure;
        value uniform 0;
        rho rhok;
    }

}
